testData/tamu2000/pfcases_100_zone3/Equ_tx2000_hr_4688_mod_v23_zone3_pslf.raw
0  100.000 
THIS IS A SYNTHETIC POWER SYSTEM MODEL THAT DOES NOT REPRESE
DATA RESEARCH PROJECT AND CONTAINS NO CEII.
1004,  2,  39.184,  -20.660,  0.000,  0.000,  1,  1.02540,  -42.4977,  'O DONNEL',  230.00,  9
1009,  2,  24.059,  -3.155,  0.000,  0.000,  1,  1.00854,  -34.8720,  'IRAAN 2 ',  13.800,  9
1021,  2,  30.244,  -12.411,  0.000,  0.000,  1,  1.00846,  -35.1686,  'BIG SPRI',  13.800,  9
1023,  2,  23.842,  -3.033,  0.000,  0.000,  1,  1.01000,  -36.6329,  'O DONNEL',  13.800,  9
1026,  2,  27.417,  -9.066,  0.000,  0.000,  1,  1.00520,  -33.3241,  'BIG SPRI',  13.800,  9
1033,  2,  155.466,  -36.443,  0.000,  0.000,  1,  1.00228,  -38.9757,  'MCCAMEY ',  230.00,  9
1035,  2,  41.527,  -10.595,  0.000,  0.000,  1,  1.00239,  -32.9448,  'BIG SPRI',  13.800,  9
1039,  2,  19.657,  -8.257,  0.000,  0.000,  1,  1.00000,  -32.0100,  'FORT STO',  22.000,  9
1042,  2,  40.238,  -4.415,  0.000,  0.000,  1,  1.00000,  -30.0145,  'FORSAN 1',  13.800,  9
1048,  2,  93.922,  -8.225,  0.000,  0.000,  1,  1.00000,  -24.2520,  'MONAHANS',  18.000,  9
1049,  2,  86.997,  3.207,  0.000,  0.000,  1,  1.00000,  -18.5910,  'MONAHANS',  18.000,  9
1053,  2,  49.989,  -14.943,  0.000,  0.000,  1,  1.00607,  -35.5418,  'MONAHANS',  230.00,  9
1057,  2,  58.328,  -14.846,  0.000,  0.000,  1,  1.00623,  -34.9803,  'LENORAH ',  18.000,  9
1063,  2,  48.353,  -5.219,  0.000,  0.000,  1,  1.02253,  -29.5935,  'BIG SPRI',  13.800,  9
1066,  2,  40.967,  -6.236,  0.000,  0.000,  1,  1.00000,  -30.3412,  'BIG SPRI',  13.800,  9
1070,  2,  46.273,  -1.154,  0.000,  0.000,  1,  1.04000,  -34.7440,  'IRAAN 1 ',  13.800,  9
1072,  3,  34.089,  -3.383,  0.000,  0.000,  1,  1.01000,  -42.4211,  'ODESSA 1',  18.000,  9
1073,  2,  30.805,  -1.294,  0.000,  0.000,  1,  1.01000,  -34.5133,  'ODESSA 1',  18.000,  9
1074,  2,  31.894,  0.234,  0.000,  0.000,  1,  1.01000,  -34.8936,  'ODESSA 1',  18.000,  9
1075,  2,  37.708,  -0.062,  0.000,  0.000,  1,  1.01000,  -36.4562,  'ODESSA 1',  18.000,  9
1076,  2,  78.551,  -7.417,  0.000,  0.000,  1,  1.01000,  -41.0990,  'ODESSA 1',  18.000,  9
1077,  2,  32.430,  -0.159,  0.000,  0.000,  1,  1.01000,  -35.3565,  'ODESSA 1',  18.000,  9
1081,  2,  86.081,  -23.557,  0.000,  0.000,  1,  1.01000,  -37.9044,  'ODESSA 1',  230.00,  9
1082,  2,  71.284,  -31.530,  0.000,  0.000,  1,  1.01694,  -34.4304,  'FORT STO',  115.00,  9
1084,  2,  100.744,  -32.670,  0.000,  0.000,  1,  1.03596,  -39.8106,  'BIG SPRI',  115.00,  9
2004,  2,  105.829,  -23.050,  0.000,  0.000,  2,  1.02000,  -57.2673,  'SAVOY 2 ',  13.800,  11
2005,  2,  92.638,  -20.315,  0.000,  0.000,  2,  1.02000,  -57.1061,  'SAVOY 3 ',  13.800,  11
2006,  2,  65.034,  -13.725,  0.000,  0.000,  2,  1.02000,  -56.4872,  'SAVOY 4 ',  13.800,  11
2024,  2,  81.004,  -16.618,  0.000,  0.000,  2,  1.02382,  -56.2129,  'PARIS 2 ',  13.800,  11
2057,  3,  196.883,  -90.990,  0.000,  0.000,  2,  0.99000,  -51.3235,  'WICHITA ',  18.000,  11
2062,  2,  74.989,  -24.605,  0.000,  0.000,  2,  1.02000,  -50.3872,  'VERNON 1',  18.000,  10
2071,  2,  38.318,  -12.387,  0.000,  0.000,  2,  1.00288,  -49.5632,  'ARCHER 2',  18.000,  11
2078,  2,  70.691,  -15.260,  0.000,  0.000,  2,  1.02000,  -59.4275,  'MUENSTER',  13.800,  11
2089,  2,  23.708,  -7.560,  0.000,  0.000,  2,  1.00220,  -49.7931,  'ARCHER 1',  24.000,  11
2100,  2,  57.092,  -18.662,  0.000,  0.000,  2,  1.02120,  -47.8497,  'RALLS 1 ',  18.000,  10
2103,  2,  150.419,  -25.190,  0.000,  0.000,  2,  1.02327,  -58.2969,  'SHERMAN ',  20.000,  11
2104,  2,  112.178,  -19.081,  0.000,  0.000,  2,  1.02213,  -58.1257,  'SHERMAN ',  20.000,  11
2105,  2,  69.966,  -12.962,  0.000,  0.000,  2,  1.01949,  -57.7016,  'SHERMAN ',  20.000,  11
2115,  2,  58.775,  -12.055,  0.000,  0.000,  2,  1.02070,  -55.1179,  'PARIS 1 ',  13.800,  11
2116,  2,  96.656,  -19.783,  0.000,  0.000,  2,  1.02447,  -56.2043,  'PARIS 1 ',  13.800,  11
2117,  2,  52.514,  -10.097,  0.000,  0.000,  2,  1.01884,  -54.7617,  'PARIS 1 ',  13.800,  11
2118,  2,  53.023,  -10.160,  0.000,  0.000,  2,  1.01784,  -54.4761,  'PARIS 1 ',  13.800,  11
2119,  2,  78.728,  -16.711,  0.000,  0.000,  2,  1.02357,  -55.9487,  'PARIS 1 ',  13.800,  11
2120,  2,  51.702,  -10.137,  0.000,  0.000,  2,  1.01840,  -54.5897,  'PARIS 1 ',  13.800,  11
2123,  2,  62.033,  -31.732,  0.000,  0.000,  2,  1.02471,  -50.6380,  'PANHANDL',  161.00,  10
3017,  2,  30.809,  1.635,  0.000,  0.000,  3,  1.01000,  -42.1107,  'BLACKWEL',  18.000,  27
3020,  2,  124.679,  -9.071,  0.000,  0.000,  3,  1.03000,  -47.6724,  'CHRISTOV',  13.800,  27
3028,  2,  60.589,  3.062,  0.000,  0.000,  3,  1.04000,  -49.1423,  'ABILENE ',  18.000,  27
3034,  2,  29.413,  2.985,  0.000,  0.000,  3,  1.03000,  -38.4656,  'SNYDER 1',  22.000,  27
3039,  2,  28.503,  -3.360,  0.000,  0.000,  3,  1.04000,  -43.9609,  'ROSCOE 2',  13.800,  27
3045,  2,  10.208,  0.268,  0.000,  0.000,  3,  1.04000,  -41.1344,  'SILVER 4',  13.800,  27
3048,  2,  663.145,  -618.740,  0.000,  0.000,  3,  1.04268,  -52.3358,  'ROSCOE 5',  500.00,  27
3055,  2,  45.945,  1.311,  0.000,  0.000,  3,  1.04000,  -44.4648,  'WINGATE ',  13.800,  27
3056,  2,  31.300,  1.989,  0.000,  0.000,  3,  1.04000,  -43.1520,  'WINGATE ',  13.800,  27
3057,  2,  31.963,  1.698,  0.000,  0.000,  3,  1.04000,  -43.2346,  'WINGATE ',  13.800,  27
3060,  2,  16.887,  0.317,  0.000,  0.000,  3,  1.04000,  -39.6660,  'STERLING',  18.000,  27
3061,  2,  20.081,  0.317,  0.000,  0.000,  3,  1.04000,  -40.7701,  'STERLING',  18.000,  27
3062,  2,  27.779,  -2.478,  0.000,  0.000,  3,  1.04000,  -42.1356,  'STERLING',  18.000,  27
3063,  2,  24.507,  0.143,  0.000,  0.000,  3,  1.04000,  -41.5474,  'STERLING',  18.000,  27
3065,  2,  -0.921,  -4.959,  0.000,  0.000,  3,  1.01233,  -39.3773,  'ROSCOE 4',  18.000,  27
3068,  2,  26.733,  0.773,  0.000,  0.000,  3,  1.04000,  -42.0604,  'TRENT 1 ',  20.000,  27
3071,  2,  17.032,  -3.567,  0.000,  0.000,  3,  1.00720,  -42.0559,  'NOLAN 1 ',  24.000,  27
3074,  2,  55.314,  -9.628,  0.000,  0.000,  3,  1.00000,  -77.3034,  'BRACKETT',  13.800,  28
3081,  2,  17.779,  -1.865,  0.000,  0.000,  3,  1.04000,  -42.3683,  'HERMLEIG',  20.000,  27
3084,  2,  17.416,  -8.361,  0.000,  0.000,  3,  1.00000,  -41.3052,  'MERKEL 1',  13.800,  27
3087,  2,  11.409,  -0.253,  0.000,  0.000,  3,  1.00471,  -38.7247,  'LORAINE ',  13.200,  27
3092,  2,  34.677,  7.614,  0.000,  0.000,  3,  1.04000,  -45.9262,  'ABILENE ',  13.800,  27
3095,  2,  21.321,  5.699,  0.000,  0.000,  3,  1.04000,  -42.3820,  'MERKEL 2',  18.000,  27
3098,  2,  18.211,  -3.155,  0.000,  0.000,  3,  1.04000,  -39.9325,  'FLUVANNA',  13.800,  27
3106,  3,  42.222,  -8.682,  0.000,  0.000,  3,  1.00000,  -57.5462,  'BUCHANAN',  13.200,  28
3110,  2,  17.013,  -1.568,  0.000,  0.000,  3,  1.04000,  -40.2965,  'FLUVANNA',  13.800,  27
3118,  2,  31.052,  -2.487,  0.000,  0.000,  3,  1.00000,  -39.9616,  'SYNDER 2',  13.800,  27
3122,  2,  17.131,  -1.587,  0.000,  0.000,  3,  1.00000,  -36.4233,  'ROSCOE 1',  18.000,  27
3127,  2,  11.276,  -1.794,  0.000,  0.000,  3,  1.01883,  -41.1821,  'SWEETWAT',  115.00,  27
3129,  2,  15.928,  -26.994,  0.000,  0.000,  3,  1.02436,  -41.0670,  'ROSCOE 3',  115.00,  27
3131,  2,  129.888,  -17.638,  0.000,  0.000,  3,  1.02000,  -45.0085,  'TUSOCOLA',  115.00,  27
3137,  2,  116.205,  -16.436,  0.000,  0.000,  3,  1.03000,  -45.5098,  'SWEETWAT',  115.00,  27
3141,  2,  33.522,  -9.411,  0.000,  0.000,  3,  1.02106,  -41.9849,  'SWEETWAT',  115.00,  27
4010,  2,  50.376,  -6.109,  0.000,  0.000,  4,  1.03000,  -80.3189,  'SARITA 3',  20.000,  21
4026,  2,  189.909,  -13.542,  0.000,  0.000,  4,  1.03000,  -65.7911,  'CHRISTIN',  13.800,  20
4030,  3,  185.853,  -21.719,  0.000,  0.000,  4,  1.01000,  -60.2788,  'FANNIN 2',  13.800,  21
4047,  2,  93.010,  -2.447,  0.000,  0.000,  4,  1.02000,  -87.0276,  'FALCON H',  13.800,  19
4050,  2,  21.818,  -9.263,  0.000,  0.000,  4,  1.00968,  -91.2943,  'SEBASTIA',  13.800,  19
4058,  2,  32.016,  4.248,  0.000,  0.000,  4,  1.03000,  -70.8627,  'GREGORY ',  13.800,  21
4059,  2,  37.601,  4.287,  0.000,  0.000,  4,  1.03000,  -71.0763,  'GREGORY ',  13.800,  21
4060,  2,  26.242,  3.081,  0.000,  0.000,  4,  1.03000,  -70.2575,  'GREGORY ',  13.800,  21
4061,  2,  34.600,  5.026,  0.000,  0.000,  4,  1.03000,  -69.1152,  'GREGORY ',  13.800,  21
4062,  2,  33.301,  3.955,  0.000,  0.000,  4,  1.03000,  -68.3378,  'GREGORY ',  13.800,  21
4063,  2,  34.033,  5.398,  0.000,  0.000,  4,  1.03000,  -69.0600,  'GREGORY ',  13.800,  21
4082,  2,  35.094,  1.845,  0.000,  0.000,  4,  1.04000,  -73.8482,  'CORPUS C',  13.800,  21
4083,  2,  37.425,  1.871,  0.000,  0.000,  4,  1.04000,  -74.1480,  'CORPUS C',  13.800,  21
4084,  2,  47.625,  -0.209,  0.000,  0.000,  4,  1.04000,  -75.7399,  'CORPUS C',  13.800,  21
4085,  2,  60.785,  -0.571,  0.000,  0.000,  4,  1.04000,  -74.7122,  'CORPUS C',  13.800,  21
4105,  2,  127.133,  8.505,  0.000,  0.000,  4,  1.01000,  -74.8323,  'TAFT 2 1',  18.000,  21
4115,  2,  116.069,  -0.701,  0.000,  0.000,  4,  1.04000,  -80.9149,  'LAREDO 1',  13.800,  20
4116,  2,  110.431,  -1.661,  0.000,  0.000,  4,  1.04000,  -80.8617,  'LAREDO 1',  13.800,  20
4142,  2,  125.575,  -7.933,  0.000,  0.000,  4,  1.04000,  -80.0587,  'SARITA 1',  13.800,  21
4153,  2,  307.281,  -18.079,  0.000,  0.000,  4,  1.04000,  -82.0422,  'ARMSTRON',  18.000,  21
4160,  2,  127.668,  20.330,  0.000,  0.000,  4,  1.03000,  -72.7707,  'CORPUS C',  13.800,  21
4161,  2,  60.638,  10.240,  0.000,  0.000,  4,  1.03000,  -70.5793,  'CORPUS C',  13.800,  21
4162,  2,  61.366,  9.039,  0.000,  0.000,  4,  1.03000,  -70.6238,  'CORPUS C',  13.800,  21
4166,  2,  39.718,  -5.695,  0.000,  0.000,  4,  1.01372,  -79.6160,  'SARITA 2',  13.800,  21
4177,  2,  73.053,  -4.571,  0.000,  0.000,  4,  1.04000,  -79.8458,  'BRUNI 1 ',  13.800,  20
4181,  2,  216.531,  -5.280,  0.000,  0.000,  4,  1.02577,  -71.8741,  'TAFT 1 0',  230.00,  21
4183,  2,  363.348,  -27.277,  0.000,  0.000,  4,  1.02448,  -83.2550,  'SAN PERL',  230.00,  19
4192,  2,  811.629,  35.899,  0.000,  0.000,  4,  1.02000,  -84.4589,  'BROWNSVI',  230.00,  19
4194,  2,  744.031,  -103.940,  0.000,  0.000,  4,  1.01952,  -93.6831,  'SEBASTIA',  115.00,  19
4195,  2,  495.921,  -148.353,  0.000,  0.000,  4,  1.02783,  -75.1086,  'OILTON 0',  500.00,  20
5020,  2,  63.005,  -18.456,  0.000,  0.000,  5,  1.02440,  -53.7182,  'JACKSBOR',  13.800,  12
5037,  2,  241.075,  -5.972,  0.000,  0.000,  5,  1.02148,  -57.8593,  'DALLAS 1',  13.200,  16
5038,  2,  233.186,  -5.152,  0.000,  0.000,  5,  1.02127,  -57.8027,  'DALLAS 1',  13.200,  16
5039,  2,  563.536,  -24.277,  0.000,  0.000,  5,  1.02392,  -58.8261,  'DALLAS 1',  13.200,  16
5040,  2,  181.068,  -4.122,  0.000,  0.000,  5,  1.02006,  -57.2331,  'DALLAS 1',  13.200,  16
5041,  2,  257.745,  -8.223,  0.000,  0.000,  5,  1.02195,  -57.9663,  'DALLAS 1',  13.200,  16
5042,  2,  217.876,  -4.394,  0.000,  0.000,  5,  1.02089,  -57.6713,  'DALLAS 1',  13.200,  16
5057,  2,  125.742,  -31.745,  0.000,  0.000,  5,  1.02359,  -53.0759,  'GRAHAM 2',  13.800,  12
5058,  2,  94.200,  -22.206,  0.000,  0.000,  5,  1.02119,  -52.3165,  'GRAHAM 3',  13.800,  12
5067,  2,  362.376,  -16.792,  0.000,  0.000,  5,  1.03000,  -57.5944,  'ARLINGTO',  13.800,  17
5068,  2,  343.917,  -16.100,  0.000,  0.000,  5,  1.03000,  -57.5023,  'ARLINGTO',  13.800,  17
5069,  2,  325.458,  -15.434,  0.000,  0.000,  5,  1.03000,  -57.3795,  'ARLINGTO',  13.800,  17
5166,  2,  156.491,  -20.263,  0.000,  0.000,  5,  1.04000,  -59.2437,  'DENTON 1',  13.800,  17
5198,  2,  144.088,  -32.530,  0.000,  0.000,  5,  1.02529,  -55.0655,  'BRYSON 1',  18.000,  12
5206,  2,  111.026,  -15.939,  0.000,  0.000,  5,  1.02201,  -54.7465,  'POOLVILL',  13.800,  12
5207,  2,  184.478,  -29.960,  0.000,  0.000,  5,  1.02461,  -55.6480,  'POOLVILL',  13.800,  12
5208,  2,  148.724,  -23.325,  0.000,  0.000,  5,  1.02382,  -55.3785,  'POOLVILL',  13.800,  12
5238,  2,  151.804,  -86.348,  0.000,  0.000,  5,  1.02781,  -53.2820,  'OLNEY 1 ',  18.000,  12
5243,  2,  140.095,  -25.130,  0.000,  0.000,  5,  1.03108,  -58.6765,  'GOLDTHWA',  13.800,  18
5262,  2,  341.149,  -4.980,  0.000,  0.000,  5,  1.01381,  -50.9291,  'GLEN ROS',  13.800,  18
5263,  2,  458.314,  -10.370,  0.000,  0.000,  5,  1.01651,  -52.1586,  'GLEN ROS',  13.800,  18
5281,  2,  154.662,  -7.771,  0.000,  0.000,  5,  1.01828,  -60.5010,  'TEMPLE 1',  13.800,  13
5282,  2,  183.416,  -9.195,  0.000,  0.000,  5,  1.01921,  -60.6363,  'TEMPLE 1',  13.800,  13
5283,  2,  242.447,  -13.358,  0.000,  0.000,  5,  1.02044,  -60.8093,  'TEMPLE 1',  13.800,  13
5298,  2,  311.625,  -27.077,  0.000,  0.000,  5,  1.03857,  -59.9715,  'MCKINNEY',  13.800,  16
5299,  2,  130.005,  -6.539,  0.000,  0.000,  5,  1.04000,  -59.7618,  'MCKINNEY',  13.800,  16
5300,  2,  159.559,  -9.076,  0.000,  0.000,  5,  1.04000,  -59.8316,  'MCKINNEY',  13.800,  16
5302,  2,  175.127,  -7.599,  0.000,  0.000,  5,  1.04000,  -58.8643,  'MCKINNEY',  13.800,  16
5303,  2,  253.074,  -17.155,  0.000,  0.000,  5,  1.04000,  -59.1953,  'MCKINNEY',  13.800,  16
5319,  2,  175.927,  -13.555,  0.000,  0.000,  5,  1.01615,  -56.0959,  'GRANBURY',  13.200,  18
5320,  2,  160.211,  -13.859,  0.000,  0.000,  5,  1.01572,  -56.0054,  'GRANBURY',  13.200,  18
5321,  2,  182.016,  -13.744,  0.000,  0.000,  5,  1.01641,  -56.1315,  'GRANBURY',  13.200,  18
5324,  2,  197.106,  -1.399,  0.000,  0.000,  5,  1.04000,  -57.8056,  'DALLAS 2',  13.800,  17
5325,  2,  197.070,  0.045,  0.000,  0.000,  5,  1.04000,  -57.8011,  'DALLAS 2',  13.800,  17
5326,  2,  591.568,  -36.412,  0.000,  0.000,  5,  1.04000,  -59.2909,  'DALLAS 2',  13.800,  17
5343,  2,  124.292,  3.477,  0.000,  0.000,  5,  1.04000,  -61.2830,  'LEWISVIL',  13.800,  17
5360,  3,  182.857,  -9.396,  0.000,  0.000,  5,  1.01000,  -57.5413,  'RIESEL 1',  13.800,  13
5364,  2,  193.781,  -24.037,  0.000,  0.000,  5,  1.02402,  -56.3277,  'BRIDGEPO',  13.800,  12
5365,  2,  100.868,  -10.764,  0.000,  0.000,  5,  1.02157,  -55.6313,  'BRIDGEPO',  13.800,  12
5366,  2,  94.032,  -10.627,  0.000,  0.000,  5,  1.02100,  -55.4455,  'BRIDGEPO',  13.800,  12
5367,  2,  96.574,  -10.699,  0.000,  0.000,  5,  1.02109,  -55.4913,  'BRIDGEPO',  13.800,  12
5368,  2,  130.510,  -15.825,  0.000,  0.000,  5,  1.02287,  -55.9875,  'BRIDGEPO',  13.800,  12
5369,  2,  89.872,  -10.161,  0.000,  0.000,  5,  1.02072,  -55.3648,  'BRIDGEPO',  13.800,  12
5382,  2,  192.786,  3.716,  0.000,  0.000,  5,  1.04000,  -58.6850,  'ENNIS 2 ',  13.800,  14
5383,  2,  168.134,  5.012,  0.000,  0.000,  5,  1.04000,  -58.5235,  'ENNIS 3 ',  13.800,  14
5399,  2,  110.037,  -37.174,  0.000,  0.000,  5,  1.04000,  -51.5232,  'ALBANY 1',  13.800,  15
5415,  2,  72.048,  -15.825,  0.000,  0.000,  5,  1.02663,  -55.2894,  'PALO PIN',  13.800,  12
5416,  2,  71.318,  -15.455,  0.000,  0.000,  5,  1.02654,  -55.2829,  'PALO PIN',  13.800,  12
5417,  2,  79.183,  -17.342,  0.000,  0.000,  5,  1.02703,  -55.3596,  'PALO PIN',  13.800,  12
5418,  2,  81.444,  -18.885,  0.000,  0.000,  5,  1.02737,  -55.3899,  'PALO PIN',  13.800,  12
5419,  2,  130.274,  -30.309,  0.000,  0.000,  5,  1.02876,  -55.6116,  'PALO PIN',  13.800,  12
5444,  2,  1300.223,  -152.179,  0.000,  0.000,  5,  1.02048,  -58.4696,  'MIDLOTHI',  500.00,  17
6006,  2,  69.075,  -5.152,  0.000,  0.000,  6,  1.04000,  -58.7497,  'BASTROP ',  13.800,  25
6007,  2,  112.398,  -8.540,  0.000,  0.000,  6,  1.04000,  -58.2594,  'BASTROP ',  13.800,  25
6008,  2,  61.640,  -2.988,  0.000,  0.000,  6,  1.04000,  -58.6809,  'BASTROP ',  13.800,  25
6009,  2,  41.775,  -0.411,  0.000,  0.000,  6,  1.04000,  -58.0871,  'BASTROP ',  13.800,  25
6010,  2,  53.985,  -2.864,  0.000,  0.000,  6,  1.04000,  -58.5360,  'BASTROP ',  13.800,  25
6042,  2,  30.372,  2.962,  0.000,  0.000,  6,  1.04000,  -59.9048,  'AUSTIN 3',  13.800,  23
6062,  1,  282.580,  -6.349,  0.000,  0.000,  6,  1.02346,  -63.3878,  'BRENHAM ',  500.00,  25
6069,  2,  164.297,  -10.352,  0.000,  0.000,  6,  1.03000,  -60.6157,  'MARION 1',  18.000,  22
6070,  2,  71.157,  -3.651,  0.000,  0.000,  6,  1.03000,  -59.6347,  'MARION 1',  18.000,  22
6071,  2,  206.664,  -12.805,  0.000,  0.000,  6,  1.03000,  -60.7586,  'MARION 1',  18.000,  22
6072,  2,  84.610,  -3.951,  0.000,  0.000,  6,  1.03000,  -59.9330,  'MARION 1',  18.000,  22
6073,  2,  129.507,  -7.385,  0.000,  0.000,  6,  1.03000,  -60.3883,  'MARION 1',  18.000,  22
6074,  2,  130.541,  -8.296,  0.000,  0.000,  6,  1.03000,  -60.3957,  'MARION 1',  18.000,  22
6078,  2,  29.344,  -21.893,  0.000,  0.000,  6,  1.01272,  -59.8578,  'LA GRANG',  22.000,  25
6079,  2,  61.731,  -41.953,  0.000,  0.000,  6,  1.01698,  -60.4453,  'LA GRANG',  22.000,  25
6080,  2,  45.248,  -31.740,  0.000,  0.000,  6,  1.01559,  -60.2601,  'LA GRANG',  22.000,  25
6106,  2,  65.808,  -17.900,  0.000,  0.000,  6,  1.02983,  -61.0000,  'WINCHEST',  13.800,  25
6110,  2,  179.778,  -10.999,  0.000,  0.000,  6,  1.04000,  -59.4207,  'ROCKDALE',  13.800,  25
6111,  2,  182.357,  -10.684,  0.000,  0.000,  6,  1.04000,  -59.3092,  'ROCKDALE',  13.800,  25
6145,  2,  144.294,  2.798,  0.000,  0.000,  6,  1.03000,  -58.5053,  'SAN ANTO',  13.800,  22
6146,  2,  149.517,  2.812,  0.000,  0.000,  6,  1.03000,  -58.6199,  'SAN ANTO',  13.800,  22
6147,  3,  170.151,  1.714,  0.000,  0.000,  6,  1.03000,  -59.3108,  'SAN ANTO',  13.800,  22
6148,  2,  272.458,  -3.303,  0.000,  0.000,  6,  1.03000,  -60.5357,  'SAN ANTO',  13.800,  22
6149,  2,  522.679,  -7.888,  0.000,  0.000,  6,  1.03000,  -61.0503,  'SAN ANTO',  13.800,  22
6164,  2,  102.843,  -9.392,  0.000,  0.000,  6,  1.03000,  -59.4312,  'SEGUIN 1',  13.800,  22
6165,  2,  98.423,  -8.667,  0.000,  0.000,  6,  1.03000,  -59.2918,  'SEGUIN 1',  13.800,  22
6166,  2,  209.046,  -22.344,  0.000,  0.000,  6,  1.03000,  -60.0767,  'SEGUIN 1',  13.800,  22
6167,  2,  116.707,  -11.035,  0.000,  0.000,  6,  1.03000,  -59.5821,  'SEGUIN 1',  13.800,  22
6188,  1,  190.073,  -14.421,  0.000,  0.000,  6,  1.00727,  -62.7787,  'COLUMBUS',  230.00,  25
6195,  1,  46.257,  3.224,  0.000,  0.000,  6,  0.98487,  -69.7226,  'INDUSTRY',  115.00,  25
6213,  2,  32.938,  -4.255,  0.000,  0.000,  6,  1.04000,  -59.7816,  'MARBLE F',  13.800,  23
6214,  2,  62.873,  -7.433,  0.000,  0.000,  6,  1.04000,  -58.9252,  'MARBLE F',  13.800,  23
6215,  2,  224.671,  -54.095,  0.000,  0.000,  6,  1.04042,  -60.2591,  'MARBLE F',  13.800,  23
6216,  2,  94.245,  -18.438,  0.000,  0.000,  6,  1.04000,  -59.6817,  'MARBLE F',  13.800,  23
6243,  2,  82.869,  -8.518,  0.000,  0.000,  6,  1.04000,  -60.3783,  'ELMENDOR',  13.800,  22
6244,  2,  100.685,  -9.904,  0.000,  0.000,  6,  1.04000,  -59.6023,  'ELMENDOR',  13.800,  22
6245,  2,  118.048,  -12.912,  0.000,  0.000,  6,  1.04000,  -59.8923,  'ELMENDOR',  13.800,  22
6246,  2,  230.773,  -30.279,  0.000,  0.000,  6,  1.04000,  -60.6595,  'ELMENDOR',  13.800,  22
6247,  2,  187.890,  -25.861,  0.000,  0.000,  6,  1.04000,  -60.9807,  'ELMENDOR',  13.800,  22
6248,  2,  91.383,  -10.016,  0.000,  0.000,  6,  1.04000,  -60.4805,  'ELMENDOR',  13.800,  22
...
 0 /End of Bus data, Begin Generator data
1004,  '1',  81.091,  -30.380,  44.940,  -30.380,  1.01000,  0,  253.200,  0.00000,  1.00000,  0.00000,  0.00000,  1.00000,  1,  100.0,  211.000,  63.300
1009,  '1',  31.704,  -11.880,  17.570,  -11.880,  1.00000,  0,  99.000,  0.00000,  1.00000,  0.00000,  0.00000,  1.00000,  1,  100.0,  82.500,  24.750
1021,  '1',  76.674,  -28.730,  42.490,  -28.730,  1.00000,  0,  239.400,  0.00000,  1.00000,  0.00000,  0.00000,  1.00000,  1,  100.0,  199.500,  59.850
1023,  '1',  69.177,  -11.326,  38.340,  -25.920,  1.01000,  0,  216.000,  0.00000,  1.00000,  0.00000,  0.00000,  1.00000,  1,  100.0,  180.000,  54.000
1026,  '1',  47.732,  -17.880,  26.450,  -17.880,  1.00000,  0,  149.040,  0.00000,  1.00000,  0.00000,  0.00000,  1.00000,  1,  100.0,  124.200,  37.260
1033,  '1',  106.840,  -40.030,  59.210,  -40.030,  1.00000,  0,  333.600,  0.00000,  1.00000,  0.00000,  0.00000,  1.00000,  1,  100.0,  278.000,  83.400
1035,  '1',  34.589,  -12.960,  19.170,  -12.960,  1.00000,  0,  108.000,  0.00000,  1.00000,  0.00000,  0.00000,  1.00000,  1,  100.0,  90.000,  27.000
1039,  '1',  56.689,  -20.183,  31.420,  -21.240,  1.00000,  0,  177.000,  0.00000,  1.00000,  0.00000,  0.00000,  1.00000,  1,  100.0,  147.500,  44.250
1042,  '1',  62.464,  -9.974,  25.960,  -17.550,  1.00000,  0,  146.280,  0.00000,  1.00000,  0.00000,  0.00000,  1.00000,  1,  100.0,  121.900,  36.570
1048,  '1',  188.620,  -4.505,  165.530,  -36.100,  1.00000,  0,  390.240,  0.00000,  0.10170,  0.00000,  0.00000,  1.00000,  1,  100.0,  325.200,  97.560
1049,  '1',  188.620,  12.953,  165.530,  -36.100,  1.00000,  0,  390.240,  0.00000,  0.13490,  0.00000,  0.00000,  1.00000,  1,  100.0,  325.200,  97.560
1053,  '1',  53.640,  -19.850,  91.010,  -19.850,  1.00000,  0,  214.560,  0.00000,  0.16870,  0.00000,  0.00000,  1.00000,  1,  100.0,  178.800,  53.640
1057,  '1',  61.491,  -17.280,  25.560,  -17.280,  1.00000,  0,  144.000,  0.00000,  1.00000,  0.00000,  0.00000,  1.00000,  1,  100.0,  120.000,  36.000
1063,  '1',  102.217,  0.000,  0.000,  0.000,  1.01000,  0,  276.000,  0.00000,  1.00000,  0.00000,  0.00000,  1.00000,  1,  100.0,  230.000,  69.000
1066,  '1',  54.768,  -10.448,  30.350,  -20.520,  1.00000,  0,  171.000,  0.00000,  1.00000,  0.00000,  0.00000,  1.00000,  1,  100.0,  142.500,  42.750
1070,  '1',  61.685,  21.992,  34.190,  -23.110,  1.04000,  0,  192.600,  0.00000,  1.00000,  0.00000,  0.00000,  1.00000,  1,  100.0,  160.500,  48.150
1072,  '1',  5.667,  -1.770,  97.800,  -21.330,  1.01000,  0,  230.560,  0.00000,  0.30820,  0.00000,  0.00000,  1.00000,  1,  100.0,  192.130,  57.640
1073,  '1',  111.440,  -4.084,  97.800,  -21.330,  1.01000,  0,  230.560,  0.00000,  0.19480,  0.00000,  0.00000,  1.00000,  1,  100.0,  192.130,  57.640
1074,  '1',  111.440,  1.468,  97.800,  -21.330,  1.01000,  0,  230.560,  0.00000,  0.20960,  0.00000,  0.00000,  1.00000,  1,  100.0,  192.130,  57.640
1075,  '1',  111.440,  0.674,  97.800,  -21.330,  1.01000,  0,  230.560,  0.00000,  0.12370,  0.00000,  0.00000,  1.00000,  1,  100.0,  192.130,  57.640
1076,  '1',  57.640,  -3.323,  97.800,  -21.330,  1.01000,  0,  230.560,  0.00000,  0.10660,  0.00000,  0.00000,  1.00000,  1,  100.0,  192.130,  57.640
1077,  '1',  108.344,  0.168,  97.800,  -21.330,  1.01000,  0,  230.560,  0.00000,  0.15380,  0.00000,  0.00000,  1.00000,  1,  100.0,  192.130,  57.640
1081,  '1',  166.170,  -0.413,  145.830,  -31.800,  1.01000,  0,  343.800,  0.00000,  0.14960,  0.00000,  0.00000,  1.00000,  1,  100.0,  286.500,  85.950
1082,  '1',  57.648,  -21.600,  31.950,  -21.600,  1.00000,  0,  180.000,  0.00000,  1.00000,  0.00000,  0.00000,  1.00000,  1,  100.0,  150.000,  45.000
1084,  '1',  44.386,  24.600,  24.600,  -16.630,  1.04000,  0,  138.600,  0.00000,  1.00000,  0.00000,  0.00000,  1.00000,  1,  100.0,  115.500,  34.650
2004,  '1',  117.540,  -42.876,  199.430,  -43.490,  1.02000,  0,  470.160,  0.00000,  0.10640,  0.00000,  0.00000,  1.00000,  1,  100.0,  391.800,  117.540
2005,  '1',  117.540,  -37.118,  199.430,  -43.490,  1.02000,  0,  470.160,  0.00000,  0.22750,  0.00000,  0.00000,  1.00000,  1,  100.0,  391.800,  117.540
2006,  '1',  117.540,  -22.833,  199.430,  -43.490,  1.02000,  0,  470.160,  0.00000,  0.20040,  0.00000,  0.00000,  1.00000,  1,  100.0,  391.800,  117.540
2024,  '1',  96.670,  -18.500,  84.830,  -18.500,  1.02000,  0,  200.000,  0.00000,  0.15080,  0.00000,  0.00000,  1.00000,  1,  100.0,  166.670,  50.000
2057,  '1',  289.796,  -226.041,  335.520,  -87.840,  0.99000,  0,  864.000,  0.00000,  0.17700,  0.00000,  0.00000,  1.00000,  1,  100.0,  720.000,  216.000
2062,  '1',  71.910,  -18.359,  28.840,  -19.500,  1.02000,  0,  162.480,  0.00000,  1.00000,  0.00000,  0.00000,  1.00000,  1,  100.0,  135.400,  40.620
2071,  '1',  70.868,  -21.600,  31.950,  -21.600,  1.00000,  0,  180.000,  0.00000,  1.00000,  0.00000,  0.00000,  1.00000,  1,  100.0,  150.000,  45.000
2078,  '1',  53.154,  -11.671,  23.960,  -16.200,  1.02000,  0,  135.000,  0.00000,  1.00000,  0.00000,  0.00000,  1.00000,  1,  100.0,  112.500,  33.750
2089,  '1',  31.938,  -9.730,  14.400,  -9.730,  1.00000,  0,  81.120,  0.00000,  1.00000,  0.00000,  0.00000,  1.00000,  1,  100.0,  67.600,  20.280
2100,  '1',  44.206,  -21.600,  31.950,  -21.600,  1.02000,  0,  180.000,  0.00000,  1.00000,  0.00000,  0.00000,  1.00000,  1,  100.0,  150.000,  45.000
2103,  '1',  80.320,  -29.720,  136.280,  -29.720,  1.00000,  0,  321.280,  0.00000,  0.33430,  0.00000,  0.00000,  1.00000,  1,  100.0,  267.730,  80.320
2104,  '1',  80.320,  -29.720,  136.280,  -29.720,  1.00000,  0,  321.280,  0.00000,  0.31470,  0.00000,  0.00000,  1.00000,  1,  100.0,  267.730,  80.320
2105,  '1',  80.320,  -29.720,  136.280,  -29.720,  1.00000,  0,  321.280,  0.00000,  0.14160,  0.00000,  0.00000,  1.00000,  1,  100.0,  267.730,  80.320
2115,  '1',  107.130,  -20.500,  94.020,  -20.500,  1.00000,  0,  221.660,  0.00000,  0.14250,  0.00000,  0.00000,  1.00000,  1,  100.0,  184.720,  55.410
2116,  '1',  107.130,  -20.500,  94.020,  -20.500,  1.00000,  0,  221.660,  0.00000,  0.18690,  0.00000,  0.00000,  1.00000,  1,  100.0,  184.720,  55.410
2117,  '1',  107.130,  -20.500,  94.020,  -20.500,  1.00000,  0,  221.660,  0.00000,  0.32540,  0.00000,  0.00000,  1.00000,  1,  100.0,  184.720,  55.410
2118,  '1',  107.130,  -20.500,  94.020,  -20.500,  1.00000,  0,  221.660,  0.00000,  0.10610,  0.00000,  0.00000,  1.00000,  1,  100.0,  184.720,  55.410
2119,  '1',  107.130,  -20.500,  94.020,  -20.500,  1.00000,  0,  221.660,  0.00000,  0.13600,  0.00000,  0.00000,  1.00000,  1,  100.0,  184.720,  55.410
2120,  '1',  107.130,  -20.500,  94.020,  -20.500,  1.01000,  0,  221.660,  0.00000,  0.20680,  0.00000,  0.00000,  1.00000,  1,  100.0,  184.720,  55.410
2123,  '1',  45.739,  -26.160,  38.700,  -26.160,  1.00000,  0,  218.040,  0.00000,  1.00000,  0.00000,  0.00000,  1.00000,  1,  100.0,  181.700,  54.510
3017,  '1',  65.144,  -12.794,  36.100,  -24.410,  1.01000,  0,  203.400,  0.00000,  1.00000,  0.00000,  0.00000,  1.00000,  1,  100.0,  169.500,  50.850
3020,  '1',  57.648,  -1.097,  31.950,  -21.600,  1.03000,  0,  180.000,  0.00000,  1.00000,  0.00000,  0.00000,  1.00000,  1,  100.0,  150.000,  45.000
3028,  '1',  94.490,  9.962,  42.600,  -28.800,  1.04000,  0,  240.000,  0.00000,  1.00000,  0.00000,  0.00000,  1.00000,  1,  100.0,  200.000,  60.000
3034,  '1',  50.151,  8.384,  27.800,  -18.790,  1.03000,  0,  156.600,  0.00000,  1.00000,  0.00000,  0.00000,  1.00000,  1,  100.0,  130.500,  39.150
3039,  '1',  80.322,  14.194,  44.520,  -30.100,  1.04000,  0,  250.800,  0.00000,  1.00000,  0.00000,  0.00000,  1.00000,  1,  100.0,  209.000,  62.700
3045,  '1',  134.100,  11.380,  227.520,  -49.620,  1.04000,  0,  536.400,  0.00000,  0.14470,  0.00000,  0.00000,  1.00000,  1,  100.0,  447.000,  134.100
3048,  '1',  92.620,  -34.700,  51.330,  -34.700,  1.04000,  0,  289.200,  0.00000,  1.00000,  0.00000,  0.00000,  1.00000,  1,  100.0,  241.000,  72.300
3055,  '1',  94.224,  15.082,  52.220,  -35.300,  1.04000,  0,  294.200,  0.00000,  1.00000,  0.00000,  0.00000,  1.00000,  1,  100.0,  245.170,  73.550
3056,  '1',  94.224,  9.056,  52.220,  -35.300,  1.04000,  0,  294.200,  0.00000,  1.00000,  0.00000,  0.00000,  1.00000,  1,  100.0,  245.170,  73.550
3057,  '1',  94.224,  8.264,  52.220,  -35.300,  1.04000,  0,  294.200,  0.00000,  1.00000,  0.00000,  0.00000,  1.00000,  1,  100.0,  245.170,  73.550
3060,  '1',  63.653,  4.588,  35.280,  -23.850,  1.04000,  0,  198.750,  0.00000,  1.00000,  0.00000,  0.00000,  1.00000,  1,  100.0,  165.630,  49.690
3061,  '1',  63.653,  5.524,  35.280,  -23.850,  1.04000,  0,  198.750,  0.00000,  1.00000,  0.00000,  0.00000,  1.00000,  1,  100.0,  165.630,  49.690
3062,  '1',  63.653,  8.941,  35.280,  -23.850,  1.04000,  0,  198.750,  0.00000,  1.00000,  0.00000,  0.00000,  1.00000,  1,  100.0,  165.630,  49.690
3063,  '1',  63.653,  6.361,  35.280,  -23.850,  1.04000,  0,  198.750,  0.00000,  1.00000,  0.00000,  0.00000,  1.00000,  1,  100.0,  165.630,  49.690
3065,  '1',  30.935,  -11.590,  17.150,  -11.590,  1.00000,  0,  96.600,  0.00000,  1.00000,  0.00000,  0.00000,  1.00000,  1,  100.0,  80.500,  24.150
3068,  '1',  57.648,  21.381,  31.950,  -21.600,  1.04000,  0,  180.000,  0.00000,  1.00000,  0.00000,  0.00000,  1.00000,  1,  100.0,  150.000,  45.000
3071,  '1',  65.411,  -24.510,  36.250,  -24.510,  1.00000,  0,  204.240,  0.00000,  1.00000,  0.00000,  0.00000,  1.00000,  1,  100.0,  170.200,  51.060
3074,  '1',  38.355,  -8.209,  21.260,  -14.370,  1.00000,  0,  119.760,  0.00000,  1.00000,  0.00000,  0.00000,  1.00000,  1,  100.0,  99.800,  29.940
3081,  '1',  95.695,  8.808,  53.040,  -35.860,  1.04000,  0,  298.800,  0.00000,  1.00000,  0.00000,  0.00000,  1.00000,  1,  100.0,  249.000,  74.700
3084,  '1',  89.351,  -29.062,  49.520,  -33.480,  1.00000,  0,  279.000,  0.00000,  1.00000,  0.00000,  0.00000,  1.00000,  1,  100.0,  232.500,  69.750
3087,  '1',  38.432,  -10.800,  15.970,  -10.800,  1.00000,  0,  90.000,  0.00000,  1.00000,  0.00000,  0.00000,  1.00000,  1,  100.0,  75.000,  22.500
3092,  '1',  76.863,  10.016,  42.600,  -28.800,  1.04000,  0,  240.000,  0.00000,  1.00000,  0.00000,  0.00000,  1.00000,  1,  100.0,  200.000,  60.000
3095,  '1',  46.349,  8.393,  25.690,  -17.370,  1.04000,  0,  144.720,  0.00000,  1.00000,  0.00000,  0.00000,  1.00000,  1,  100.0,  120.600,  36.180
3098,  '1',  61.491,  6.670,  34.080,  -23.040,  1.04000,  0,  192.000,  0.00000,  1.00000,  0.00000,  0.00000,  1.00000,  1,  100.0,  160.000,  48.000
3106,  '1',  53.238,  -18.085,  62.477,  -2.690,  1.00000,  0,  65.880,  0.00000,  0.29220,  0.00000,  0.00000,  1.00000,  1,  100.0,  162.800,  0.000
3110,  '1',  32.283,  6.205,  17.890,  -12.100,  1.04000,  0,  100.800,  0.00000,  1.00000,  0.00000,  0.00000,  1.00000,  1,  100.0,  84.000,  25.200
3118,  '1',  46.118,  -15.094,  25.560,  -17.280,  1.00000,  0,  144.000,  0.00000,  1.00000,  0.00000,  0.00000,  1.00000,  1,  100.0,  120.000,  36.000
3122,  '1',  75.710,  -19.436,  41.960,  -28.370,  1.00000,  0,  236.400,  0.00000,  1.00000,  0.00000,  0.00000,  1.00000,  1,  100.0,  197.000,  59.100
3127,  '1',  51.883,  -19.440,  28.760,  -19.440,  1.00000,  0,  162.000,  0.00000,  1.00000,  0.00000,  0.00000,  1.00000,  1,  100.0,  135.000,  40.500
3129,  '1',  48.619,  -18.220,  26.940,  -18.220,  1.00000,  0,  151.800,  0.00000,  1.00000,  0.00000,  0.00000,  1.00000,  1,  100.0,  126.500,  37.950
3131,  '1',  43.812,  -7.415,  24.280,  -16.420,  1.02000,  0,  136.800,  0.00000,  1.00000,  0.00000,  0.00000,  1.00000,  1,  100.0,  114.000,  34.200
3137,  '1',  38.893,  16.976,  21.560,  -14.570,  1.03000,  0,  121.440,  0.00000,  1.00000,  0.00000,  0.00000,  1.00000,  1,  100.0,  101.200,  30.360
3141,  '1',  35.162,  -13.180,  19.490,  -13.180,  1.00000,  0,  109.800,  0.00000,  1.00000,  0.00000,  0.00000,  1.00000,  1,  100.0,  91.500,  27.450
4010,  '1',  77.478,  4.415,  42.940,  -29.030,  1.03000,  0,  241.920,  0.00000,  1.00000,  0.00000,  0.00000,  1.00000,  1,  100.0,  201.600,  60.480
4026,  '1',  123.000,  7.431,  191.060,  -50.020,  1.03000,  0,  492.000,  0.00000,  0.32770,  0.00000,  0.00000,  1.00000,  1,  100.0,  410.000,  123.000
4030,  '1',  119.260,  -29.305,  290.040,  -75.930,  1.01000,  0,  746.880,  0.00000,  0.27970,  0.00000,  0.00000,  1.00000,  1,  100.0,  622.400,  186.720
4047,  '1',  43.602,  4.297,  75.102,  -3.230,  1.02000,  0,  79.200,  0.00000,  0.32270,  0.00000,  0.00000,  1.00000,  1,  100.0,  195.700,  0.000
4050,  '1',  76.863,  -28.800,  42.600,  -28.800,  1.00000,  0,  240.000,  0.00000,  1.00000,  0.00000,  0.00000,  1.00000,  1,  100.0,  200.000,  60.000
4058,  '1',  43.200,  7.259,  73.300,  -15.980,  1.03000,  0,  172.800,  0.00000,  0.13700,  0.00000,  0.00000,  1.00000,  1,  100.0,  144.000,  43.200
4059,  '1',  43.200,  7.871,  73.300,  -15.980,  1.03000,  0,  172.800,  0.00000,  0.15140,  0.00000,  0.00000,  1.00000,  1,  100.0,  144.000,  43.200
4060,  '1',  43.200,  5.020,  73.300,  -15.980,  1.03000,  0,  172.800,  0.00000,  0.13940,  0.00000,  0.00000,  1.00000,  1,  100.0,  144.000,  43.200
4061,  '1',  99.950,  8.005,  87.720,  -19.130,  1.03000,  0,  206.800,  0.00000,  0.21560,  0.00000,  0.00000,  1.00000,  1,  100.0,  172.330,  51.700
4062,  '1',  99.950,  5.688,  87.720,  -19.130,  1.03000,  0,  206.800,  0.00000,  0.25930,  0.00000,  0.00000,  1.00000,  1,  100.0,  172.330,  51.700
4063,  '1',  99.950,  9.184,  87.720,  -19.130,  1.03000,  0,  206.800,  0.00000,  0.14410,  0.00000,  0.00000,  1.00000,  1,  100.0,  172.330,  51.700
4082,  '1',  141.170,  15.504,  123.890,  -27.020,  1.04000,  0,  292.080,  0.00000,  0.13810,  0.00000,  0.00000,  1.00000,  1,  100.0,  243.400,  73.020
4083,  '1',  141.170,  16.366,  123.890,  -27.020,  1.04000,  0,  292.080,  0.00000,  0.15700,  0.00000,  0.00000,  1.00000,  1,  100.0,  243.400,  73.020
4084,  '1',  141.170,  28.474,  123.890,  -27.020,  1.04000,  0,  292.080,  0.00000,  0.19110,  0.00000,  0.00000,  1.00000,  1,  100.0,  243.400,  73.020
4085,  '1',  253.440,  33.197,  179.170,  -39.070,  1.04000,  0,  422.400,  0.00000,  0.31920,  0.00000,  0.00000,  1.00000,  1,  100.0,  352.000,  105.600
4105,  '1',  85.041,  -8.066,  38.340,  -25.920,  1.01000,  0,  216.000,  0.00000,  1.00000,  0.00000,  0.00000,  1.00000,  1,  100.0,  180.000,  54.000
4115,  '1',  39.540,  23.941,  67.090,  -14.630,  1.04000,  0,  158.160,  0.00000,  0.11310,  0.00000,  0.00000,  1.00000,  1,  100.0,  131.800,  39.540
4116,  '1',  39.540,  22.369,  67.090,  -14.630,  1.04000,  0,  158.160,  0.00000,  0.15150,  0.00000,  0.00000,  1.00000,  1,  100.0,  131.800,  39.540
4142,  '1',  72.252,  21.888,  40.040,  -27.070,  1.04000,  0,  225.600,  0.00000,  1.00000,  0.00000,  0.00000,  1.00000,  1,  100.0,  188.000,  56.400
4153,  '1',  108.839,  56.047,  60.320,  -40.780,  1.04000,  0,  339.840,  0.00000,  1.00000,  0.00000,  0.00000,  1.00000,  1,  100.0,  283.200,  84.960
4160,  '1',  114.710,  27.691,  100.660,  -21.950,  1.03000,  0,  237.320,  0.00000,  0.18820,  0.00000,  0.00000,  1.00000,  1,  100.0,  197.770,  59.330
4161,  '1',  114.710,  13.724,  100.660,  -21.950,  1.03000,  0,  237.320,  0.00000,  0.12390,  0.00000,  0.00000,  1.00000,  1,  100.0,  197.770,  59.330
4162,  '1',  114.710,  11.430,  100.660,  -21.950,  1.03000,  0,  237.320,  0.00000,  0.17220,  0.00000,  0.00000,  1.00000,  1,  100.0,  197.770,  59.330
4166,  '1',  77.248,  -28.940,  42.810,  -28.940,  1.00000,  0,  241.200,  0.00000,  1.00000,  0.00000,  0.00000,  1.00000,  1,  100.0,  201.000,  60.300
4177,  '1',  57.648,  1.531,  31.950,  -21.600,  1.04000,  0,  180.000,  0.00000,  1.00000,  0.00000,  0.00000,  1.00000,  1,  100.0,  150.000,  45.000
4181,  '1',  94.534,  42.620,  42.620,  -28.810,  1.04000,  0,  240.120,  0.00000,  1.00000,  0.00000,  0.00000,  1.00000,  1,  100.0,  200.100,  60.030
4183,  '1',  78.016,  43.240,  43.240,  -29.230,  1.03000,  0,  243.600,  0.00000,  1.00000,  0.00000,  0.00000,  1.00000,  1,  100.0,  203.000,  60.900
4192,  '1',  784.350,  15.323,  688.320,  -150.120,  1.02000,  0,  1622.76,  0.00000,  0.14340,  0.00000,  0.00000,  1.00000,  1,  100.0,  1352.31,  405.690
4194,  '1',  77.478,  42.940,  42.940,  -29.030,  1.02000,  0,  241.920,  0.00000,  1.00000,  0.00000,  0.00000,  1.00000,  1,  100.0,  201.600,  60.480
4195,  '1',  35.357,  -13.250,  19.600,  -13.250,  1.00000,  0,  110.400,  0.00000,  1.00000,  0.00000,  0.00000,  1.00000,  1,  100.0,  92.000,  27.600
5020,  '1',  56.694,  -17.280,  25.560,  -17.280,  1.00000,  0,  144.000,  0.00000,  1.00000,  0.00000,  0.00000,  1.00000,  1,  100.0,  120.000,  36.000
5037,  '1',  265.280,  -34.240,  157.010,  -34.240,  1.02000,  0,  370.160,  0.00000,  0.29910,  0.00000,  0.00000,  1.00000,  1,  100.0,  308.470,  92.540
5038,  '1',  265.280,  -34.240,  157.010,  -34.240,  1.02000,  0,  370.160,  0.00000,  0.12330,  0.00000,  0.00000,  1.00000,  1,  100.0,  308.470,  92.540
5039,  '1',  265.280,  -34.240,  157.010,  -34.240,  1.02000,  0,  370.160,  0.00000,  0.21470,  0.00000,  0.00000,  1.00000,  1,  100.0,  308.470,  92.540
5040,  '1',  265.280,  -34.240,  157.010,  -34.240,  1.02000,  0,  370.160,  0.00000,  0.19240,  0.00000,  0.00000,  1.00000,  1,  100.0,  308.470,  92.540
5041,  '1',  265.280,  -34.240,  157.010,  -34.240,  1.02000,  0,  370.160,  0.00000,  0.11590,  0.00000,  0.00000,  1.00000,  1,  100.0,  308.470,  92.540
5042,  '1',  265.280,  -34.240,  157.010,  -34.240,  1.02000,  0,  370.160,  0.00000,  0.19130,  0.00000,  0.00000,  1.00000,  1,  100.0,  308.470,  92.540
5057,  '1',  228.450,  -35.230,  161.530,  -35.230,  1.00000,  0,  380.820,  0.00000,  0.19130,  0.00000,  0.00000,  1.00000,  1,  100.0,  317.350,  95.200
5058,  '1',  228.490,  -35.230,  161.530,  -35.230,  1.00000,  0,  380.820,  0.00000,  0.29820,  0.00000,  0.00000,  1.00000,  1,  100.0,  317.350,  95.200
5067,  '1',  315.550,  2.123,  223.080,  -48.650,  1.03000,  0,  525.920,  0.00000,  0.32610,  0.00000,  0.00000,  1.00000,  1,  100.0,  438.270,  131.480
5068,  '1',  315.550,  0.839,  223.080,  -48.650,  1.03000,  0,  525.920,  0.00000,  0.11690,  0.00000,  0.00000,  1.00000,  1,  100.0,  438.270,  131.480
5069,  '1',  315.550,  0.395,  223.080,  -48.650,  1.03000,  0,  525.920,  0.00000,  0.10560,  0.00000,  0.00000,  1.00000,  1,  100.0,  438.270,  131.480
5166,  '1',  37.950,  27.327,  64.390,  -14.040,  1.04000,  0,  151.800,  0.00000,  0.13910,  0.00000,  0.00000,  1.00000,  1,  100.0,  126.500,  37.950
5198,  '1',  70.868,  -21.600,  31.950,  -21.600,  1.00000,  0,  180.000,  0.00000,  1.00000,  0.00000,  0.00000,  1.00000,  1,  100.0,  150.000,  45.000
5206,  '1',  179.040,  -27.600,  126.570,  -27.600,  1.01000,  0,  298.400,  0.00000,  0.11980,  0.00000,  0.00000,  1.00000,  1,  100.0,  248.670,  74.600
5207,  '1',  179.040,  -27.600,  126.570,  -27.600,  1.01000,  0,  298.400,  0.00000,  0.18090,  0.00000,  0.00000,  1.00000,  1,  100.0,  248.670,  74.600
5208,  '1',  179.040,  -27.600,  126.570,  -27.600,  1.01000,  0,  298.400,  0.00000,  0.10560,  0.00000,  0.00000,  1.00000,  1,  100.0,  248.670,  74.600
5238,  '1',  106.302,  -32.400,  47.930,  -32.400,  1.00000,  0,  270.000,  0.00000,  1.00000,  0.00000,  0.00000,  1.00000,  1,  100.0,  225.000,  67.500
5243,  '1',  70.868,  -21.600,  31.950,  -21.600,  1.00000,  0,  180.000,  0.00000,  1.00000,  0.00000,  0.00000,  1.00000,  1,  100.0,  150.000,  45.000
5262,  '1',  1215.000,  -99.630,  447.120,  -99.630,  1.01000,  0,  1458.00,  0.00000,  0.26310,  0.00000,  0.00000,  1.00000,  1,  100.0,  1215.00,  364.500
5263,  '1',  1215.000,  -99.630,  447.120,  -99.630,  1.01000,  0,  1458.00,  0.00000,  0.16260,  0.00000,  0.00000,  1.00000,  1,  100.0,  1215.00,  364.500
5281,  '1',  80.320,  -29.720,  136.280,  -29.720,  1.00000,  0,  321.280,  0.00000,  0.10660,  0.00000,  0.00000,  1.00000,  1,  100.0,  267.730,  80.320
5282,  '1',  80.320,  -29.720,  136.280,  -29.720,  1.00000,  0,  321.280,  0.00000,  0.23940,  0.00000,  0.00000,  1.00000,  1,  100.0,  267.730,  80.320
5283,  '1',  80.320,  -29.720,  136.280,  -29.720,  1.00000,  0,  321.280,  0.00000,  0.10650,  0.00000,  0.00000,  1.00000,  1,  100.0,  267.730,  80.320
5298,  '1',  34.500,  58.530,  58.530,  -12.760,  1.04000,  0,  138.000,  0.00000,  0.13260,  0.00000,  0.00000,  1.00000,  1,  100.0,  115.000,  34.500
5299,  '1',  34.500,  34.995,  58.530,  -12.760,  1.04000,  0,  138.000,  0.00000,  0.32280,  0.00000,  0.00000,  1.00000,  1,  100.0,  115.000,  34.500
5300,  '1',  34.500,  42.221,  58.530,  -12.760,  1.04000,  0,  138.000,  0.00000,  0.21910,  0.00000,  0.00000,  1.00000,  1,  100.0,  115.000,  34.500
5302,  '1',  139.130,  43.847,  236.050,  -51.480,  1.04000,  0,  556.500,  0.00000,  0.13300,  0.00000,  0.00000,  1.00000,  1,  100.0,  463.750,  139.130
5303,  '1',  139.130,  59.221,  236.050,  -51.480,  1.04000,  0,  556.500,  0.00000,  0.17920,  0.00000,  0.00000,  1.00000,  1,  100.0,  463.750,  139.130
5319,  '1',  78.840,  -29.170,  133.770,  -29.170,  1.01000,  0,  315.360,  0.00000,  0.25070,  0.00000,  0.00000,  1.00000,  1,  100.0,  262.800,  78.840
5320,  '1',  78.840,  -29.170,  133.770,  -29.170,  1.01000,  0,  315.360,  0.00000,  0.28140,  0.00000,  0.00000,  1.00000,  1,  100.0,  262.800,  78.840
5321,  '1',  78.840,  -29.170,  133.770,  -29.170,  1.01000,  0,  315.360,  0.00000,  0.12810,  0.00000,  0.00000,  1.00000,  1,  100.0,  262.800,  78.840
5324,  '1',  204.530,  45.349,  144.590,  -31.530,  1.04000,  0,  340.880,  0.00000,  0.21670,  0.00000,  0.00000,  1.00000,  1,  100.0,  284.070,  85.220
5325,  '1',  204.530,  46.826,  144.590,  -31.530,  1.04000,  0,  340.880,  0.00000,  0.15030,  0.00000,  0.00000,  1.00000,  1,  100.0,  284.070,  85.220
5326,  '1',  204.530,  128.282,  144.590,  -31.530,  1.04000,  0,  340.880,  0.00000,  0.18810,  0.00000,  0.00000,  1.00000,  1,  100.0,  284.070,  85.220
5343,  '1',  46.231,  22.790,  79.667,  -3.430,  1.04000,  0,  84.000,  0.00000,  0.24140,  0.00000,  0.00000,  1.00000,  1,  100.0,  207.500,  0.000
5360,  '1',  384.684,  -119.474,  469.730,  -122.980,  1.01000,  0,  1209.60,  0.00000,  0.25510,  0.00000,  0.00000,  1.00000,  1,  100.0,  1008.00,  302.400
5364,  '1',  123.730,  -23.680,  108.590,  -23.680,  1.00000,  0,  256.000,  0.00000,  0.13030,  0.00000,  0.00000,  1.00000,  1,  100.0,  213.330,  64.000
5365,  '1',  123.730,  -23.680,  108.590,  -23.680,  1.00000,  0,  256.000,  0.00000,  0.11650,  0.00000,  0.00000,  1.00000,  1,  100.0,  213.330,  64.000
5366,  '1',  123.730,  -23.680,  108.590,  -23.680,  1.00000,  0,  256.000,  0.00000,  0.15490,  0.00000,  0.00000,  1.00000,  1,  100.0,  213.330,  64.000
5367,  '1',  123.730,  -23.680,  108.590,  -23.680,  1.00000,  0,  256.000,  0.00000,  0.10020,  0.00000,  0.00000,  1.00000,  1,  100.0,  213.330,  64.000
5368,  '1',  123.730,  -23.680,  108.590,  -23.680,  1.00000,  0,  256.000,  0.00000,  0.36180,  0.00000,  0.00000,  1.00000,  1,  100.0,  213.330,  64.000
5369,  '1',  123.730,  -23.680,  108.590,  -23.680,  1.00000,  0,  256.000,  0.00000,  0.24440,  0.00000,  0.00000,  1.00000,  1,  100.0,  213.330,  64.000
5382,  '1',  150.480,  78.772,  106.380,  -23.200,  1.04000,  0,  250.800,  0.00000,  0.24770,  0.00000,  0.00000,  1.00000,  1,  100.0,  209.000,  62.700
5383,  '1',  150.480,  69.356,  106.380,  -23.200,  1.04000,  0,  250.800,  0.00000,  0.39820,  0.00000,  0.00000,  1.00000,  1,  100.0,  209.000,  62.700
5399,  '1',  78.238,  3.258,  35.270,  -23.850,  1.04000,  0,  198.720,  0.00000,  1.00000,  0.00000,  0.00000,  1.00000,  1,  100.0,  165.600,  49.680
5415,  '1',  36.600,  -13.540,  62.100,  -13.540,  1.00000,  0,  146.400,  0.00000,  0.14030,  0.00000,  0.00000,  1.00000,  1,  100.0,  122.000,  36.600
5416,  '1',  36.600,  -13.540,  62.100,  -13.540,  1.00000,  0,  146.400,  0.00000,  0.26480,  0.00000,  0.00000,  1.00000,  1,  100.0,  122.000,  36.600
5417,  '1',  36.600,  -13.540,  62.100,  -13.540,  1.00000,  0,  146.400,  0.00000,  0.16960,  0.00000,  0.00000,  1.00000,  1,  100.0,  122.000,  36.600
5418,  '1',  35.640,  -13.190,  60.470,  -13.190,  1.00000,  0,  142.560,  0.00000,  0.34000,  0.00000,  0.00000,  1.00000,  1,  100.0,  118.800,  35.640
5419,  '1',  35.640,  -13.190,  60.470,  -13.190,  1.00000,  0,  142.560,  0.00000,  0.16420,  0.00000,  0.00000,  1.00000,  1,  100.0,  118.800,  35.640
5444,  '1',  604.980,  -223.840,  1026.440,  -223.840,  1.01000,  0,  2419.92,  0.00000,  0.34260,  0.00000,  0.00000,  1.00000,  1,  100.0,  2016.60,  604.980
6006,  '1',  123.540,  11.306,  108.420,  -23.640,  1.04000,  0,  255.600,  0.00000,  0.18770,  0.00000,  0.00000,  1.00000,  1,  100.0,  213.000,  63.900
6007,  '1',  306.720,  18.752,  216.830,  -47.290,  1.04000,  0,  511.200,  0.00000,  0.13420,  0.00000,  0.00000,  1.00000,  1,  100.0,  426.000,  127.800
6008,  '1',  115.030,  10.380,  100.950,  -22.010,  1.04000,  0,  238.000,  0.00000,  0.20160,  0.00000,  0.00000,  1.00000,  1,  100.0,  198.330,  59.500
6009,  '1',  115.030,  6.490,  100.950,  -22.010,  1.04000,  0,  238.000,  0.00000,  0.18430,  0.00000,  0.00000,  1.00000,  1,  100.0,  198.330,  59.500
6010,  '1',  115.030,  8.157,  100.950,  -22.010,  1.04000,  0,  238.000,  0.00000,  0.15620,  0.00000,  0.00000,  1.00000,  1,  100.0,  198.330,  59.500
6042,  '1',  71.340,  8.275,  122.908,  -5.290,  1.04000,  0,  129.600,  0.00000,  0.18770,  0.00000,  0.00000,  1.00000,  1,  100.0,  320.200,  0.000
6069,  '1',  105.190,  -10.931,  92.320,  -20.130,  1.03000,  0,  217.640,  0.00000,  0.22480,  0.00000,  0.00000,  1.00000,  1,  100.0,  181.370,  54.410
6070,  '1',  105.190,  -3.989,  92.320,  -20.130,  1.03000,  0,  217.640,  0.00000,  0.24660,  0.00000,  0.00000,  1.00000,  1,  100.0,  181.370,  54.410
6071,  '1',  105.190,  -12.985,  92.320,  -20.130,  1.03000,  0,  217.640,  0.00000,  0.15280,  0.00000,  0.00000,  1.00000,  1,  100.0,  181.370,  54.410
6072,  '1',  105.190,  -4.678,  92.320,  -20.130,  1.03000,  0,  217.640,  0.00000,  0.19250,  0.00000,  0.00000,  1.00000,  1,  100.0,  181.370,  54.410
6073,  '1',  105.190,  -8.049,  92.320,  -20.130,  1.03000,  0,  217.640,  0.00000,  0.14260,  0.00000,  0.00000,  1.00000,  1,  100.0,  181.370,  54.410
6074,  '1',  105.190,  -8.790,  92.320,  -20.130,  1.03000,  0,  217.640,  0.00000,  0.11150,  0.00000,  0.00000,  1.00000,  1,  100.0,  181.370,  54.410
6078,  '1',  169.000,  -68.730,  262.510,  -68.730,  1.00000,  0,  676.000,  0.00000,  0.28900,  0.00000,  0.00000,  1.00000,  1,  100.0,  563.330,  169.000
6079,  '1',  169.000,  -68.730,  262.510,  -68.730,  1.00000,  0,  676.000,  0.00000,  0.25330,  0.00000,  0.00000,  1.00000,  1,  100.0,  563.330,  169.000
6080,  '1',  169.000,  -68.730,  262.510,  -68.730,  1.00000,  0,  676.000,  0.00000,  0.32510,  0.00000,  0.00000,  1.00000,  1,  100.0,  563.330,  169.000
6106,  '1',  36.300,  61.590,  61.590,  -13.430,  1.04000,  0,  145.200,  0.00000,  0.12010,  0.00000,  0.00000,  1.00000,  1,  100.0,  121.000,  36.300
6110,  '1',  177.180,  25.277,  275.220,  -72.050,  1.04000,  0,  708.720,  0.00000,  0.16800,  0.00000,  0.00000,  1.00000,  1,  100.0,  590.600,  177.180
6111,  '1',  198.450,  25.765,  308.260,  -80.700,  1.04000,  0,  793.800,  0.00000,  0.21900,  0.00000,  0.00000,  1.00000,  1,  100.0,  661.500,  198.450
6145,  '1',  321.120,  -2.638,  227.010,  -49.510,  1.03000,  0,  535.200,  0.00000,  0.14770,  0.00000,  0.00000,  1.00000,  1,  100.0,  446.000,  133.800
6146,  '1',  321.120,  -2.836,  227.010,  -49.510,  1.03000,  0,  535.200,  0.00000,  0.11950,  0.00000,  0.00000,  1.00000,  1,  100.0,  446.000,  133.800
6147,  '1',  284.650,  -5.879,  474.390,  -103.450,  1.03000,  0,  1118.40,  0.00000,  0.10440,  0.00000,  0.00000,  1.00000,  1,  100.0,  932.000,  279.600
6148,  '1',  216.600,  -13.739,  367.500,  -80.140,  1.03000,  0,  866.400,  0.00000,  0.23830,  0.00000,  0.00000,  1.00000,  1,  100.0,  722.000,  216.600
6149,  '1',  216.600,  -25.247,  367.500,  -80.140,  1.03000,  0,  866.400,  0.00000,  0.12770,  0.00000,  0.00000,  1.00000,  1,  100.0,  722.000,  216.600
6164,  '1',  136.330,  -3.127,  119.640,  -26.090,  1.03000,  0,  282.060,  0.00000,  0.30070,  0.00000,  0.00000,  1.00000,  1,  100.0,  235.050,  70.520
6165,  '1',  136.330,  -3.379,  119.640,  -26.090,  1.03000,  0,  282.060,  0.00000,  0.18390,  0.00000,  0.00000,  1.00000,  1,  100.0,  235.050,  70.520
6166,  '1',  136.330,  -7.137,  119.640,  -26.090,  1.03000,  0,  282.060,  0.00000,  0.25100,  0.00000,  0.00000,  1.00000,  1,  100.0,  235.050,  70.520
6167,  '1',  136.330,  -3.768,  119.640,  -26.090,  1.03000,  0,  282.060,  0.00000,  0.13970,  0.00000,  0.00000,  1.00000,  1,  100.0,  235.050,  70.520
6213,  '1',  39.636,  -2.491,  68.286,  -2.940,  1.04000,  0,  72.000,  0.00000,  0.33650,  0.00000,  0.00000,  1.00000,  1,  100.0,  177.900,  0.000
6214,  '1',  123.051,  -3.661,  212.059,  -9.130,  1.04000,  0,  223.600,  0.00000,  0.21900,  0.00000,  0.00000,  1.00000,  1,  100.0,  552.300,  0.000
6215,  '1',  123.051,  -9.130,  212.059,  -9.130,  1.04000,  0,  223.600,  0.00000,  0.20110,  0.00000,  0.00000,  1.00000,  1,  100.0,  552.300,  0.000
6216,  '1',  123.051,  -6.768,  212.059,  -9.130,  1.04000,  0,  223.600,  0.00000,  0.37760,  0.00000,  0.00000,  1.00000,  1,  100.0,  552.300,  0.000
6243,  '1',  106.140,  22.678,  93.150,  -20.310,  1.04000,  0,  219.600,  0.00000,  0.28800,  0.00000,  0.00000,  1.00000,  1,  100.0,  183.000,  54.900
6244,  '1',  214.560,  27.502,  151.680,  -33.080,  1.04000,  0,  357.600,  0.00000,  0.12500,  0.00000,  0.00000,  1.00000,  1,  100.0,  298.000,  89.400
6245,  '1',  214.560,  31.836,  151.680,  -33.080,  1.04000,  0,  357.600,  0.00000,  0.24960,  0.00000,  0.00000,  1.00000,  1,  100.0,  298.000,  89.400
6246,  '1',  214.560,  60.721,  151.680,  -33.080,  1.04000,  0,  357.600,  0.00000,  0.16990,  0.00000,  0.00000,  1.00000,  1,  100.0,  298.000,  89.400
6247,  '1',  106.330,  50.010,  93.320,  -20.350,  1.04000,  0,  220.000,  0.00000,  0.11730,  0.00000,  0.00000,  1.00000,  1,  100.0,  183.330,  55.000
6248,  '1',  106.330,  25.236,  93.320,  -20.350,  1.04000,  0,  220.000,  0.00000,  0.27550,  0.00000,  0.00000,  1.00000,  1,  100.0,  183.330,  55.000
6249,  '1',  106.330,  16.953,  93.320,  -20.350,  1.04000,  0,  220.000,  0.00000,  0.17480,  0.00000,  0.00000,  1.00000,  1,  100.0,  183.330,  55.000
6257,  '1',  112.520,  -21.530,  98.750,  -21.530,  1.02000,  0,  232.800,  0.00000,  0.15520,  0.00000,  0.00000,  1.00000,  1,  100.0,  194.000,  58.200
6258,  '1',  112.520,  -21.530,  98.750,  -21.530,  1.02000,  0,  232.800,  0.00000,  0.26310,  0.00000,  0.00000,  1.00000,  1,  100.0,  194.000,  58.200
...
 0 /End of Generator data, Begin Branch data
1004,  1023,  '99',  0.01132,  0.34416,  0.00000,  0.00,  0.00,  0.00,  0.00000,  0.000,  0.00000,  0.00000,  0.00000,  0.00000,  1
1004,  1057,  '99',  0.65012,  4.28924,  0.00000,  0.00,  0.00,  0.00,  0.00000,  0.000,  0.00000,  0.00000,  0.00000,  0.00000,  1
1004,  2057,  '99',  1.32797,  3.13350,  0.00000,  0.00,  0.00,  0.00,  0.00000,  0.000,  0.00000,  0.00000,  0.00000,  0.00000,  1
1004,  2062,  '99',  0.83506,  3.91034,  0.00000,  0.00,  0.00,  0.00,  0.00000,  0.000,  0.00000,  0.00000,  0.00000,  0.00000,  1
1004,  2100,  '99',  0.02636,  0.51284,  0.00000,  0.00,  0.00,  0.00,  0.00000,  0.000,  0.00000,  0.00000,  0.00000,  0.00000,  1
1004,  2123,  '99',  0.09284,  1.44413,  0.00000,  0.00,  0.00,  0.00,  0.00000,  0.000,  0.00000,  0.00000,  0.00000,  0.00000,  1
1004,  3034,  '99',  0.36025,  2.70224,  0.00000,  0.00,  0.00,  0.00,  0.00000,  0.000,  0.00000,  0.00000,  0.00000,  0.00000,  1
1004,  3039,  '99',  0.03237,  0.33375,  0.00000,  0.00,  0.00,  0.00,  0.00000,  0.000,  0.00000,  0.00000,  0.00000,  0.00000,  1
1004,  3048,  '99',  0.04541,  0.33073,  0.00000,  0.00,  0.00,  0.00,  0.00000,  0.000,  0.00000,  0.00000,  0.00000,  0.00000,  1
1004,  3081,  '99',  0.03975,  0.42409,  0.00000,  0.00,  0.00,  0.00,  0.00000,  0.000,  0.00000,  0.00000,  0.00000,  0.00000,  1
1004,  3087,  '99',  0.39859,  3.11643,  0.00000,  0.00,  0.00,  0.00,  0.00000,  0.000,  0.00000,  0.00000,  0.00000,  0.00000,  1
1004,  3098,  '99',  0.02870,  0.46226,  0.00000,  0.00,  0.00,  0.00,  0.00000,  0.000,  0.00000,  0.00000,  0.00000,  0.00000,  1
1004,  3110,  '99',  0.06143,  0.50837,  0.00000,  0.00,  0.00,  0.00,  0.00000,  0.000,  0.00000,  0.00000,  0.00000,  0.00000,  1
1004,  3118,  '99',  0.20933,  2.02859,  0.00000,  0.00,  0.00,  0.00,  0.00000,  0.000,  0.00000,  0.00000,  0.00000,  0.00000,  1
1004,  3127,  '99',  1.11767,  4.65559,  0.00000,  0.00,  0.00,  0.00,  0.00000,  0.000,  0.00000,  0.00000,  0.00000,  0.00000,  1
1004,  3129,  '99',  1.17239,  3.78422,  0.00000,  0.00,  0.00,  0.00,  0.00000,  0.000,  0.00000,  0.00000,  0.00000,  0.00000,  1
1004,  5399,  '99',  0.80797,  4.78356,  0.00000,  0.00,  0.00,  0.00,  0.00000,  0.000,  0.00000,  0.00000,  0.00000,  0.00000,  1
1009,  1033,  '99',  0.07353,  0.64912,  0.00000,  0.00,  0.00,  0.00,  0.00000,  0.000,  0.00000,  0.00000,  0.00000,  0.00000,  1
1009,  1039,  '99',  1.26571,  4.30692,  0.00000,  0.00,  0.00,  0.00,  0.00000,  0.000,  0.00000,  0.00000,  0.00000,  0.00000,  1
1009,  1070,  '99',  -0.00725,  0.39963,  0.00000,  0.00,  0.00,  0.00,  0.00000,  0.000,  0.00000,  0.00000,  0.00000,  0.00000,  1
1009,  1082,  '99',  0.09922,  0.45301,  0.00000,  0.00,  0.00,  0.00,  0.00000,  0.000,  0.00000,  0.00000,  0.00000,  0.00000,  1
1021,  1026,  '99',  0.02078,  0.81697,  0.00000,  0.00,  0.00,  0.00,  0.00000,  0.000,  0.00000,  0.00000,  0.00000,  0.00000,  1
1021,  1035,  '99',  0.85915,  4.53785,  0.00000,  0.00,  0.00,  0.00,  0.00000,  0.000,  0.00000,  0.00000,  0.00000,  0.00000,  1
1021,  1042,  '99',  0.79574,  4.74114,  0.00000,  0.00,  0.00,  0.00,  0.00000,  0.000,  0.00000,  0.00000,  0.00000,  0.00000,  1
1021,  1063,  '99',  0.14546,  2.39896,  0.00000,  0.00,  0.00,  0.00,  0.00000,  0.000,  0.00000,  0.00000,  0.00000,  0.00000,  1
1021,  1084,  '99',  0.01300,  0.19184,  0.00000,  0.00,  0.00,  0.00,  0.00000,  0.000,  0.00000,  0.00000,  0.00000,  0.00000,  1
1021,  3048,  '99',  0.41809,  3.52508,  0.00000,  0.00,  0.00,  0.00,  0.00000,  0.000,  0.00000,  0.00000,  0.00000,  0.00000,  1
1021,  3062,  '99',  -0.08729,  4.50600,  0.00000,  0.00,  0.00,  0.00,  0.00000,  0.000,  0.00000,  0.00000,  0.00000,  0.00000,  1
1021,  3141,  '99',  1.20180,  4.22382,  0.00000,  0.00,  0.00,  0.00,  0.00000,  0.000,  0.00000,  0.00000,  0.00000,  0.00000,  1
1023,  2100,  '99',  -0.02677,  3.44999,  0.00000,  0.00,  0.00,  0.00,  0.00000,  0.000,  0.00000,  0.00000,  0.00000,  0.00000,  1
1023,  3098,  '99',  0.01146,  3.05180,  0.00000,  0.00,  0.00,  0.00,  0.00000,  0.000,  0.00000,  0.00000,  0.00000,  0.00000,  1
1023,  3110,  '99',  0.08520,  0.92384,  0.00000,  0.00,  0.00,  0.00,  0.00000,  0.000,  0.00000,  0.00000,  0.00000,  0.00000,  1
1026,  1035,  '99',  0.57290,  3.26718,  0.00000,  0.00,  0.00,  0.00,  0.00000,  0.000,  0.00000,  0.00000,  0.00000,  0.00000,  1
1026,  1042,  '99',  0.52651,  3.41967,  0.00000,  0.00,  0.00,  0.00,  0.00000,  0.000,  0.00000,  0.00000,  0.00000,  0.00000,  1
1026,  1063,  '99',  0.07475,  1.84565,  0.00000,  0.00,  0.00,  0.00,  0.00000,  0.000,  0.00000,  0.00000,  0.00000,  0.00000,  1
1026,  1066,  '99',  0.78334,  4.61718,  0.00000,  0.00,  0.00,  0.00,  0.00000,  0.000,  0.00000,  0.00000,  0.00000,  0.00000,  1
1026,  1084,  '99',  0.07641,  0.48564,  0.00000,  0.00,  0.00,  0.00,  0.00000,  0.000,  0.00000,  0.00000,  0.00000,  0.00000,  1
1033,  1035,  '99',  -0.18547,  2.73133,  0.00000,  0.00,  0.00,  0.00,  0.00000,  0.000,  0.00000,  0.00000,  0.00000,  0.00000,  1
1033,  1039,  '99',  0.06809,  0.83024,  0.00000,  0.00,  0.00,  0.00,  0.00000,  0.000,  0.00000,  0.00000,  0.00000,  0.00000,  1
1033,  1070,  '99',  0.11332,  0.81909,  0.00000,  0.00,  0.00,  0.00,  0.00000,  0.000,  0.00000,  0.00000,  0.00000,  0.00000,  1
1033,  1081,  '99',  0.00300,  0.03092,  0.00000,  0.00,  0.00,  0.00,  0.00000,  0.000,  0.00000,  0.00000,  0.00000,  0.00000,  1
1033,  1082,  '99',  0.09888,  0.33113,  0.00000,  0.00,  0.00,  0.00,  0.00000,  0.000,  0.00000,  0.00000,  0.00000,  0.00000,  1
1033,  3020,  '99',  0.03695,  0.84490,  0.00000,  0.00,  0.00,  0.00,  0.00000,  0.000,  0.00000,  0.00000,  0.00000,  0.00000,  1
1033,  4115,  '99',  0.15526,  3.80157,  0.00000,  0.00,  0.00,  0.00,  0.00000,  0.000,  0.00000,  0.00000,  0.00000,  0.00000,  1
1033,  4116,  '99',  0.20256,  3.99835,  0.00000,  0.00,  0.00,  0.00,  0.00000,  0.000,  0.00000,  0.00000,  0.00000,  0.00000,  1
1033,  4195,  '99',  0.30372,  2.77114,  0.00000,  0.00,  0.00,  0.00,  0.00000,  0.000,  0.00000,  0.00000,  0.00000,  0.00000,  1
1035,  1042,  '99',  0.00574,  0.66836,  0.00000,  0.00,  0.00,  0.00,  0.00000,  0.000,  0.00000,  0.00000,  0.00000,  0.00000,  1
1035,  1057,  '99',  0.16582,  2.56931,  0.00000,  0.00,  0.00,  0.00,  0.00000,  0.000,  0.00000,  0.00000,  0.00000,  0.00000,  1
1035,  1063,  '99',  0.14520,  1.24384,  0.00000,  0.00,  0.00,  0.00,  0.00000,  0.000,  0.00000,  0.00000,  0.00000,  0.00000,  1
1035,  1066,  '99',  0.03162,  0.94918,  0.00000,  0.00,  0.00,  0.00,  0.00000,  0.000,  0.00000,  0.00000,  0.00000,  0.00000,  1
1035,  1084,  '99',  0.81989,  2.46485,  0.00000,  0.00,  0.00,  0.00,  0.00000,  0.000,  0.00000,  0.00000,  0.00000,  0.00000,  1
1039,  1048,  '99',  0.08052,  3.11034,  0.00000,  0.00,  0.00,  0.00,  0.00000,  0.000,  0.00000,  0.00000,  0.00000,  0.00000,  1
1039,  1053,  '99',  0.00454,  4.16346,  0.00000,  0.00,  0.00,  0.00,  0.00000,  0.000,  0.00000,  0.00000,  0.00000,  0.00000,  1
1039,  1082,  '99',  0.01281,  0.17120,  0.00000,  0.00,  0.00,  0.00,  0.00000,  0.000,  0.00000,  0.00000,  0.00000,  0.00000,  1
1042,  1057,  '99',  0.00909,  1.86611,  0.00000,  0.00,  0.00,  0.00,  0.00000,  0.000,  0.00000,  0.00000,  0.00000,  0.00000,  1
1042,  1063,  '99',  0.11303,  1.25961,  0.00000,  0.00,  0.00,  0.00,  0.00000,  0.000,  0.00000,  0.00000,  0.00000,  0.00000,  1
1042,  1066,  '99',  -0.01644,  0.58184,  0.00000,  0.00,  0.00,  0.00,  0.00000,  0.000,  0.00000,  0.00000,  0.00000,  0.00000,  1
1042,  1084,  '99',  0.77189,  2.51082,  0.00000,  0.00,  0.00,  0.00,  0.00000,  0.000,  0.00000,  0.00000,  0.00000,  0.00000,  1
1048,  1049,  '99',  0.00166,  0.34074,  0.00000,  0.00,  0.00,  0.00,  0.00000,  0.000,  0.00000,  0.00000,  0.00000,  0.00000,  1
1048,  1053,  '99',  0.00193,  0.25472,  0.00000,  0.00,  0.00,  0.00,  0.00000,  0.000,  0.00000,  0.00000,  0.00000,  0.00000,  1
1048,  1076,  '99',  0.43239,  2.87818,  0.00000,  0.00,  0.00,  0.00,  0.00000,  0.000,  0.00000,  0.00000,  0.00000,  0.00000,  1
1048,  1081,  '99',  0.56977,  3.86714,  0.00000,  0.00,  0.00,  0.00,  0.00000,  0.000,  0.00000,  0.00000,  0.00000,  0.00000,  1
1048,  1082,  '99',  0.41545,  1.76410,  0.00000,  0.00,  0.00,  0.00,  0.00000,  0.000,  0.00000,  0.00000,  0.00000,  0.00000,  1
1048,  3048,  '99',  0.42239,  3.06344,  0.00000,  0.00,  0.00,  0.00,  0.00000,  0.000,  0.00000,  0.00000,  0.00000,  0.00000,  1
1049,  1053,  '99',  -0.00908,  0.45587,  0.00000,  0.00,  0.00,  0.00,  0.00000,  0.000,  0.00000,  0.00000,  0.00000,  0.00000,  1
1049,  1082,  '99',  0.65661,  3.17696,  0.00000,  0.00,  0.00,  0.00,  0.00000,  0.000,  0.00000,  0.00000,  0.00000,  0.00000,  1
1053,  1076,  '99',  0.48294,  3.86456,  0.00000,  0.00,  0.00,  0.00,  0.00000,  0.000,  0.00000,  0.00000,  0.00000,  0.00000,  1
1053,  1081,  '99',  0.00299,  0.02983,  0.00000,  0.00,  0.00,  0.00,  0.00000,  0.000,  0.00000,  0.00000,  0.00000,  0.00000,  1
1053,  1082,  '99',  0.49724,  2.37366,  0.00000,  0.00,  0.00,  0.00,  0.00000,  0.000,  0.00000,  0.00000,  0.00000,  0.00000,  1
1053,  3048,  '99',  0.46342,  4.11206,  0.00000,  0.00,  0.00,  0.00,  0.00000,  0.000,  0.00000,  0.00000,  0.00000,  0.00000,  1
1057,  1063,  '99',  -0.04936,  1.43938,  0.00000,  0.00,  0.00,  0.00,  0.00000,  0.000,  0.00000,  0.00000,  0.00000,  0.00000,  1
1057,  1066,  '99',  -0.01776,  1.56270,  0.00000,  0.00,  0.00,  0.00,  0.00000,  0.000,  0.00000,  0.00000,  0.00000,  0.00000,  1
1057,  1076,  '99',  0.20100,  3.22203,  0.00000,  0.00,  0.00,  0.00,  0.00000,  0.000,  0.00000,  0.00000,  0.00000,  0.00000,  1
1057,  1081,  '99',  0.26240,  4.16219,  0.00000,  0.00,  0.00,  0.00,  0.00000,  0.000,  0.00000,  0.00000,  0.00000,  0.00000,  1
...